Info: SIMULATION PARAMETERS:
Info: TIMESTEP               2
Info: NUMBER OF STEPS        0
Info: STEPS PER CYCLE        10
Info: PERIODIC CELL BASIS 1  98.4815 0 0
Info: PERIODIC CELL BASIS 2  0 98.4815 0
Info: PERIODIC CELL BASIS 3  0 0 245.469
Info: PERIODIC CELL CENTER   0 0 0
Info: WRAPPING ALL CLUSTERS AROUND PERIODIC BOUNDARIES ON OUTPUT.
Info: FIRST LDB TIMESTEP     50
Info: LAST LDB TIMESTEP     -1
Info: HOM BACKGROUND SCALING 1
Info: PME BACKGROUND SCALING 1
Info: MIN ATOMS PER PATCH    40
Info: EMPTY PATCH LOAD       40 ATOMS
Info: VELOCITY FILE          1R17.40.1r.vel
Info: CENTER OF MASS MOVING INITIALLY? NO
Info: DIELECTRIC             1
Info: EXCLUDE                SCALED ONE-FOUR
Info: 1-4 ELECTROSTATICS SCALED BY 1
Info: MODIFIED 1-4 VDW PARAMETERS WILL BE USED
Info: DCD FILENAME           1R17.40.2.dcd
Info: DCD FREQUENCY          5000
Info: DCD FIRST STEP         5000
Info: DCD FILE WILL CONTAIN UNIT CELL DATA
Info: XST FILENAME           1R17.40.2.xst
Info: XST FREQUENCY          5000
Info: NO VELOCITY DCD OUTPUT
Info: NO FORCE DCD OUTPUT
Info: OUTPUT FILENAME        1R17.40.2
Info: RESTART FILENAME       1R17.40.2r
Info: RESTART FREQUENCY      5000
Info: BINARY RESTART FILES WILL BE USED
Info: SWITCHING ACTIVE
Info: SWITCHING ON           8
Info: SWITCHING OFF          11
Info: PAIRLIST DISTANCE      12
Info: PAIRLIST SHRINK RATE   0.01
Info: PAIRLIST GROW RATE     0.01
Info: PAIRLIST TRIGGER       0.3
Info: PAIRLISTS PER CYCLE    2
Info: PAIRLISTS ENABLED
Info: MARGIN                 4
Info: HYDROGEN GROUP CUTOFF  2.8
Info: PATCH DIMENSION        18.8
Info: ENERGY OUTPUT STEPS    5000
Info: ENERGY EVALUATION STEPS    5000
Info: OUTPUT ENERGY PRECISION 4
Info: CROSSTERM ENERGY INCLUDED IN DIHEDRAL
Info: TIMING OUTPUT STEPS    5000
Info: PRESSURE OUTPUT STEPS  5000
Info: HARMONIC CONSTRAINTS ACTIVE
Info: HARMONIC CONS EXP      2
Info: HARMONIC CONS SCALING  10
Info: SMD ACTIVE
Info: SMD VELOCITY    2.5e-05 ANGSTROM/TIMESTEP
Info: SMD DIRECTION   0 0 -1
Info: SMD K   1
Info: SMD K2  0
Info: SMD OUTPUT FREQUENCY   160 TIMESTEPS
Info: SMD FILE 1R17.40.1.pdb
Info: LANGEVIN DYNAMICS ACTIVE
Info: LANGEVIN TEMPERATURE   300
Info: LANGEVIN USING BBK INTEGRATOR
Info: LANGEVIN DAMPING COEFFICIENT IS 0.1 INVERSE PS
Info: LANGEVIN DYNAMICS APPLIED TO HYDROGENS
Info: LANGEVIN PISTON PRESSURE CONTROL ACTIVE
Info:        TARGET PRESSURE IS 1 BAR
Info:     OSCILLATION PERIOD IS 200 FS
Info:             DECAY TIME IS 100 FS
Info:     PISTON TEMPERATURE IS 300 K
Info:       PRESSURE CONTROL IS GROUP-BASED
Info:    INITIAL STRAIN RATE IS 3.1761e-06 3.1761e-06 3.1761e-06
Info:       CELL FLUCTUATION IS ISOTROPIC
Info: PARTICLE MESH EWALD (PME) ACTIVE
Info: PME TOLERANCE               1e-05
Info: PME EWALD COEFFICIENT       0.248606
Info: PME INTERPOLATION ORDER     4
Info: PME GRID DIMENSIONS         108 108 252
Info: PME MAXIMUM GRID SPACING    1
Info: PME CALCULATION WILL BE PERFORMED ON GPU
Info: FULL ELECTROSTATIC EVALUATION FREQUENCY      2
Info: USING VERLET I (r-RESPA) MTS SCHEME.
Info: C1 SPLITTING OF LONG RANGE ELECTROSTATICS
Info: PLACING ATOMS IN PATCHES BY HYDROGEN GROUPS
Info: RIGID BONDS TO HYDROGEN : ALL
Info:         ERROR TOLERANCE : 1e-05
Info:          MAX ITERATIONS : 400
Info: RIGID WATER USING SETTLE ALGORITHM
Info: RANDOM NUMBER SEED     12345
Info: USE HYDROGEN BONDS?    NO
Info: COORDINATE PDB         1R17.40.1.pdb
Info: STRUCTURE FILE         1R17.40.0.psf
Info: PARAMETER file: CHARMM format!
Info: PARAMETERS             par_all36_prot.prm
Info: PARAMETERS             par_all36_water.prm
Info: USING ARITHMETIC MEAN TO COMBINE L-J SIGMA PARAMETERS
Info: BINARY COORDINATES     1R17.40.1r.coor
Info: SUMMARY OF PARAMETERS:
Info: 134 BONDS
Info: 352 ANGLES
Info: 672 DIHEDRAL
Info: 35 IMPROPER
Info: 6 CROSSTERM
Info: 68 VDW
Info: 2 VDW_PAIRS
Info: 0 NBTHOLE_PAIRS
Info: STRUCTURE SUMMARY:
Info: 241246 ATOMS
Info: 162636 BONDS
Info: 88291 ANGLES
Info: 14170 DIHEDRALS
Info: 995 IMPROPERS
Info: 348 CROSSTERMS
Info: 0 EXCLUSIONS
Info: 1 CONSTRAINTS
Info: 238487 RIGID BONDS
Info: 485251 DEGREES OF FREEDOM
Info: 81391 HYDROGEN GROUPS
Info: 4 ATOMS IN LARGEST HYDROGEN GROUP
Info: 81391 MIGRATION GROUPS
Info: 4 ATOMS IN LARGEST MIGRATION GROUP
Info: TOTAL MASS = 1.45594e+06 amu
Info: TOTAL CHARGE = 3.78489e-06 e
Info: MASS DENSITY = 1.01554 g/cm^3
Info: ATOM DENSITY = 0.101334 atoms/A^3
Info: ADDED 264927 IMPLICIT EXCLUSIONS
Info: NONBONDED TABLE R-SQUARED SPACING: 0.0625
Info: NONBONDED TABLE SIZE: 705 POINTS
Info: REMOVING COM VELOCITY -0.000124144 -0.00395329 0.00888951
Info: Use 3D box decompostion in PME FFT.
Info: Updated CUDA force table with 4096 elements.
Info: Updated CUDA LJ table with 68 x 68 elements.
Info: Found 290 unique exclusion lists needing 924 bytes
TCL: Running for 5000000 steps
ETITLE: TS BOND ANGLE DIHED IMPRP ELECT VDW BOUNDARY MISC KINETIC TOTAL TEMP POTENTIAL TOTALAVG TEMPAVG PRESSURE GPRESSURE VOLUME PRESSAVG GPRESSAVG
ENERGY: 0 948.7362 2765.3643 3449.3821 191.6282 -867211.8395 82185.5954 0.0000 0.0000 144538.3848 -633132.7485 299.7831 -777671.1333 -633132.7485 299.7831 60.1768 104.0381 2380705.5785 60.1768 104.0381
ENERGY: 1000000 1053.0127 2837.9234 3432.4031 211.6169 -867628.6358 82644.0666 3.1620 0.5570 144144.0111 -633301.8830 298.9651 -777445.8941 -632289.0519 299.8659 7.5495 49.8168 2383682.7496 -39.7553 2.2350
ENERGY: 2000000 1028.2080 2958.6810 3470.0946 204.3955 -866811.4951 82650.3018 3.0802 17.3849 145236.3114 -631243.0377 301.2306 -776479.3491 -632142.8655 300.1743 67.6961 111.3332 2381368.7687 -17.2973 24.9717
ENERGY: 3000000 1133.3169 2829.9023 3500.6971 199.1474 -867544.4893 82922.8094 14.8978 198.6989 144700.0274 -632044.9920 300.1184 -776745.0194 -632210.7949 300.1444 30.7022 73.4266 2384014.4252 -19.1097 22.9485
ENERGY: 4000000 1187.1572 3043.3474 3478.0431 179.4163 -867657.9882 82636.8451 27.1678 780.2372 144515.0713 -631810.7030 299.7347 -776325.7743 -631209.4513 299.9538 36.2232 80.2789 2380685.6273 -28.0231 13.7358
ENERGY: 5000000 1051.6516 2910.5956 3393.6664 193.6180 -866285.5114 81768.8924 1.5753 0.2266 144611.2917 -632353.9938 299.9343 -776965.2855 -632312.8284 300.1579 -67.4750 -27.8515 2381861.7591 -51.5244 -9.4943
